
**** 11/01/23 22:02:11 ********* PSpice 9.2 (Mar 2000) ******** ID# 1 ********

 * D:\Projects\1075-pt100-4-20ma-converter\Schematic1.sch


 ****     CIRCUIT DESCRIPTION


******************************************************************************




* Schematics Version 9.2
* Wed Nov 01 22:02:11 2023


.PARAM         RL=100 

** Analysis setup **
.DC LIN PARAM RL 18 390 1 


* From [PSPICE NETLIST] section of C:\Program Files\Orcad\PSpice\PSpice.ini:
.lib "nom.lib"

.INC "Schematic1.net"



**** INCLUDING Schematic1.net ****
* Schematics Netlist *



R_R11         $N_0002 $N_0001  1k  
R_R12         $N_0004 $N_0003  1k  
R_R8         $N_0003 $N_0005  100K  
R_R9         $N_0006 $N_0002  {RL}  
R_R10         $N_0001 0  100k  
X_U1         $N_0001 $N_0003 $N_0007 0 $N_0005 OP-07
Q_Q1         $N_0011 $N_0010 0 BC547B 
V_V2         $N_0007 0 24V
R_R16         $N_0005 $N_0010  40k  
R_R5         $N_0002 $N_0007  10K  
R_R4         0 $N_0004  10K  
R_R3         $N_0004 $N_0007  10K  
R_R13         0 $N_0006  10K  
R_R15         $N_0011 $N_0007  1.5k  

**** RESUMING Schematic1.cir ****
.PROBE V(*) I(*) W(*) D(*) NOISE(*) 


.END

**** 11/01/23 22:02:11 ********* PSpice 9.2 (Mar 2000) ******** ID# 1 ********

 * D:\Projects\1075-pt100-4-20ma-converter\Schematic1.sch


 ****     Diode MODEL PARAMETERS


******************************************************************************




               X_U1.dx         X_U1.dy         
          IS  800.000000E-18  800.000000E-18 
          RS    1               1.000000E-03 
         CJO                   10.000000E-12 


**** 11/01/23 22:02:11 ********* PSpice 9.2 (Mar 2000) ******** ID# 1 ********

 * D:\Projects\1075-pt100-4-20ma-converter\Schematic1.sch


 ****     BJT MODEL PARAMETERS


******************************************************************************




               BC547B          X_U1.qx         
               NPN             NPN             
          IS    7.049000E-15  800.000000E-18 
          BF  374.6             3.000000E+03 
          NF    1               1            
         VAF   62.79                         
         IKF     .08157                      
         ISE   68.000000E-15                 
          NE    1.576                        
          BR    1               1            
          NR    1               1            
         IKR    3.924                        
         ISC   12.400000E-15                 
          NC    1.835                        
          NK     .4767                       
          RC     .9747                       
         CJE   11.500000E-12                 
         VJE     .5                          
         MJE     .6715                       
         CJC    5.250000E-12                 
         VJC     .5697                       
         MJC     .3147                       
          TF  410.200000E-12                 
         XTF   40.06                         
         VTF   10                            
         ITF    1.491                        
          TR   10.000000E-09                 
         XTB    1.5                          
          CN    2.42            2.42         
           D     .87             .87         



          JOB CONCLUDED

          TOTAL JOB TIME             .06
